<?xml version="1.0" encoding="UTF-8"?>
<configuration>
    <input>
        <net-file value="rwendo.net.xml"/>
    </input>
    <time>
        <begin value="0"/>
        <step-length value="0.1"/>
    </time>
    <processing>
        <time-to-teleport value="-1"/>
        <collision.action value="warn"/>
    </processing>
    <report>
        <no-step-log value="true"/>
        <no-warnings value="true"/>
    </report>
</configuration>
